*Heading
** Job name: Job-unmodified Model name: Model-1
** Generated by: Abaqus/CAE 2023
*Preprint, echo=NO, model=NO, history=NO, contact=NO
**
** PARTS
**
*Part, name=Part-1
*End Part
**  
**
** ASSEMBLY
**
*Assembly, name=Assembly
**  
*Instance, name=Part-1-1, part=Part-1
*Node
      1,  0.200000003, -0.0675000027, 0.00499999989
      2,  0.209999993, -0.0675000027, 0.00499999989
      3,  0.209999993, -0.0675000027,           0.
      4,  0.200000003, -0.0675000027,           0.
      5,  0.209999993, -0.0925000012, 0.00499999989
      6,  0.209999993, -0.0925000012,           0.
      7,  0.200000003, -0.0925000012,           0.
      8,  0.200000003, -0.0925000012, 0.00499999989
      9,  0.200000003, 0.0925000012, 0.00499999989
     10,  0.209999993, 0.0925000012, 0.00499999989
     11,  0.209999993, 0.0925000012,           0.
     12,  0.200000003, 0.0925000012,           0.
     13,  0.209999993, 0.0675000027, 0.00499999989
     14,  0.209999993, 0.0675000027,           0.
     15,  0.200000003, 0.0675000027,           0.
     16,  0.200000003, 0.0675000027, 0.00499999989
     17,           0.,  0.100000001, 0.00499999989
     18,           0.,  0.100000001,           0.
     19,           0.,           0.,           0.
     20,           0., -0.100000001,           0.
** ... 19927 like lines cut
*Element, type=C3D8
 1,    54,   745, 13653,   727,     1,    29,   721,    36
 2,   745,   746, 13654, 13653,    29,    30,   722,   721
 3,   746,   747, 13655, 13654,    30,    31,   723,   722
 4,   747,    72,   736, 13655,    31,     2,    32,   723
 5,   727, 13653,   772,    53,    36,   721,    35,     4
 6, 13653, 13654,   773,   772,   721,   722,    34,    35
 7, 13654, 13655,   774,   773,   722,   723,    33,    34
 8, 13655,   736,    71,   774,   723,    32,     3,    33
 9,    55,   748, 13656,   728,    54,   745, 13653,   727
10,   748,   749, 13657, 13656,   745,   746, 13654, 13653
11,   749,   750, 13658, 13657,   746,   747, 13655, 13654
12,   750,    73,   737, 13658,   747,    72,   736, 13655
13,   728, 13656,   775,    52,   727, 13653,   772,    53
14, 13656, 13657,   776,   775, 13653, 13654,   773,   772
15, 13657, 13658,   777,   776, 13654, 13655,   774,   773
16, 13658,   737,    70,   777, 13655,   736,    71,   774
17,    56,   751, 13659,   729,    55,   748, 13656,   728
18,   751,   752, 13660, 13659,   748,   749, 13657, 13656
19,   752,   753, 13661, 13660,   749,   750, 13658, 13657
20,   753,    74,   738, 13661,   750,    73,   737, 13658
** ... 12940 like lines cut
*Nset, nset=Set-1
     1,     4,     7,     8,     9,    12,    15,    16,    17,    18,    19,    20,    21,    22,    23,    24
    25,    26,    27,    28,    36,    44,    45,    46,    47,    48,    49,    50,    51,    52,    53,    54
    55,    56,    57,    58,    59,    60,    61,    62,    88,    96,    97,    98,    99,   100,   101,   102
   103,   104,   105,   106,   107,   108,   109,   110,   111,   112,   113,   114,   133,   134,   135,   136
   137,   138,   139,   140,   141,   142,   143,   144,   145,   146,   147,   148,   149,   150,   151,   152
   153,   154,   155,   156,   157,   158,   159,   160,   161,   162,   163,   164,   165,   166,   167,   168
   169,   170,   171,   172,   173,   174,   175,   176,   177,   178,   179,   180,   181,   182,   183,   184
   185,   186,   187,   188,   189,   190,   191,   192,   193,   194,   195,   196,   197,   198,   199,   200
   201,   202,   203,   204,   205,   206,   207,   208,   209,   210,   211,   212,   213,   214,   215,   216
   217,   218,   219,   220,   221,   222,   223,   224,   225,   226,   227,   228,   229,   230,   231,   232
   233,   234,   235,   236,   237,   238,   239,   240,   241,   242,   243,   244,   245,   246,   247,   248
   249,   250,   251,   252,   253,   254,   255,   256,   257,   258,   259,   260,   261,   262,   263,   264
   265,   266,   267,   268,   269,   270,   271,   272,   273,   274,   275,   276,   277,   278,   279,   280
   281,   282,   283,   284,   285,   286,   287,   288,   289,   290,   291,   292,   293,   294,   295,   296
   297,   298,   299,   300,   301,   302,   303,   304,   305,   306,   307,   308,   309,   310,   311,   312
   313,   314,   315,   316,   317,   318,   319,   320,   321,   322,   323,   324,   325,   326,   327,   328
   329,   330,   331,   332,   333,   334,   335,   336,   337,   338,   339,   340,   341,   342,   343,   344
   345,   346,   347,   348,   349,   350,   351,   352,   353,   354,   355,   356,   357,   358,   359,   360
   361,   362,   363,   364,   365,   366,   367,   368,   369,   370,   371,   372,   373,   374,   375,   376
   377,   378,   379,   380,   381,   382,   383,   384,   385,   386,   387,   388,   389,   390,   391,   392
** ... 1211 like lines cut
*Elset, elset=Set-1, generate
   161,  12960,      1
*Nset, nset=Set-2
     1,     2,     3,     4,     5,     6,     7,     8,     9,    10,    11,    12,    13,    14,    15,    16
    29,    30,    31,    32,    33,    34,    35,    36,    37,    38,    39,    40,    41,    42,    43,    44
    45,    46,    47,    48,    49,    50,    51,    52,    53,    54,    55,    56,    57,    58,    59,    60
    61,    62,    63,    64,    65,    66,    67,    68,    69,    70,    71,    72,    73,    74,    75,    76
    77,    78,    79,    80,    81,    82,    83,    84,    85,    86,    87,    88,    89,    90,    91,    92
    93,    94,    95,    96,    97,    98,    99,   100,   101,   102,   103,   104,   105,   106,   107,   108
   109,   110,   111,   112,   113,   114,   115,   116,   117,   118,   119,   120,   121,   122,   123,   124
   125,   126,   127,   128,   129,   130,   131,   132,   721,   722,   723,   724,   725,   726,   727,   728
   729,   730,   731,   732,   733,   734,   735,   736,   737,   738,   739,   740,   741,   742,   743,   744
   745,   746,   747,   748,   749,   750,   751,   752,   753,   754,   755,   756,   757,   758,   759,   760
   761,   762,   763,   764,   765,   766,   767,   768,   769,   770,   771,   772,   773,   774,   775,   776
   777,   778,   779,   780,   781,   782,   783,   784,   785,   786,   787,   788,   789,   790,   791,   792
   793,   794,   795,   796,   797,   798,   799,   800,   801,   802,   803,   804,   805,   806,   807,   808
   809,   810,   811,   812,   813,   814,   815,   816,   817,   818,   819,   820,   821,   822,   823,   824
   825,   826,   827,   828,   829,   830,   831,   832,   833,   834,   835,   836,   837,   838,   839,   840
   841,   842,   843,   844,   845,   846,   847,   848,   849,   850,   851,   852,   853,   854,   855,   856
   857,   858,   859,   860,   861,   862,   863,   864,   865,   866,   867,   868,   869,   870,   871,   872
   873,   874,   875,   876, 13653, 13654, 13655, 13656, 13657, 13658, 13659, 13660, 13661, 13662, 13663, 13664
 13665, 13666, 13667, 13668, 13669, 13670, 13671, 13672, 13673, 13674, 13675, 13676, 13677, 13678, 13679, 13680
 13681, 13682, 13683, 13684, 13685, 13686, 13687, 13688, 13689, 13690, 13691, 13692, 13693, 13694, 13695, 13696
 13697, 13698, 13699, 13700, 13701, 13702, 13703, 13704, 13705, 13706
*Elset, elset=Set-2, generate
   1,  160,    1
** Section: Hinge
*Solid Section, elset=Set-2, material=Alu
,
** Section: Panel
*Solid Section, elset=Set-1, material=Acrylic
,
*End Instance
**  
*Nset, nset=Set-1, instance=Part-1-1
   2,   3,   5,   6,  10,  11,  13,  14,  32,  40,  63,  64,  65,  66,  67,  68
  69,  70,  71,  72,  73,  74,  75,  76,  77,  78,  79,  80,  84,  92, 115, 116
 117, 118, 119, 120, 121, 122, 123, 124, 125, 126, 127, 128, 129, 130, 131, 132
 736, 737, 738, 739, 740, 741, 742, 743, 744, 814, 815, 816, 817, 818, 819, 820
 821, 822
*Elset, elset=Set-1, instance=Part-1-1, generate
   4,  160,    4
*Nset, nset=Set-2, instance=Part-1-1
 17, 22
*End Assembly
** 
** MATERIALS
** 
*Material, name=Acrylic
*Density
1190.,
*Elastic
 3.3e+09, 0.35
*Material, name=Alu
*Density
2699.,
*Elastic
 7.02e+10, 0.345
** 
*Step, name=Step-2, nlgeom=NO
**
** modified Inputfile -> Export MASS and STIFFNESS matrices
**
** for export a consistent mass matrix MASS=CONSISTENT for lumped only MASS
**
*MATRIX GENERATE, STIFFNESS, MASS
**
*MATRIX OUTPUT, STIFFNESS, MASS, FORMAT=COORDINATE
**
*End Step