*Heading
** Job name: Job-unmodified Model name: Model-1
** Generated by: Abaqus/CAE 2023
*Preprint, echo=NO, model=NO, history=NO, contact=NO
**
** PARTS
**
*Part, name=Part-1
*End Part
**  
**
** ASSEMBLY
**
*Assembly, name=Assembly
**  
*Instance, name=Part-1-1, part=Part-1
*Node
      1,  0.200000003, -0.0675000027, 0.00499999989
      2,  0.209999993, -0.0675000027, 0.00499999989
      3,  0.209999993, -0.0675000027,           0.
      4,  0.200000003, -0.0675000027,           0.
      5,  0.209999993, -0.0925000012, 0.00499999989
      6,  0.209999993, -0.0925000012,           0.
      7,  0.200000003, -0.0925000012,           0.
      8,  0.200000003, -0.0925000012, 0.00499999989
      9,  0.200000003, 0.0925000012, 0.00499999989
     10,  0.209999993, 0.0925000012, 0.00499999989
     11,  0.209999993, 0.0925000012,           0.
     12,  0.200000003, 0.0925000012,           0.
     13,  0.209999993, 0.0675000027, 0.00499999989
     14,  0.209999993, 0.0675000027,           0.
     15,  0.200000003, 0.0675000027,           0.
     16,  0.200000003, 0.0675000027, 0.00499999989
     17,           0.,  0.100000001, 0.00499999989
     18,           0.,  0.100000001,           0.
     19,           0.,           0.,           0.
     20,           0., -0.100000001,           0.
** ... 3554 like lines cut
*Element, type=C3D8
 1,  37, 361, 365,  36,   1,  29,  30,   4
 2, 361,  45,  44, 365,  29,   2,   3,  30
 3,  38, 362, 366,  35,  37, 361, 365,  36
 4, 362,  46,  43, 366, 361,  45,  44, 365
 5,  39, 363, 367,  34,  38, 362, 366,  35
 6, 363,  47,  42, 367, 362,  46,  43, 366
 7,  40, 364, 368,  33,  39, 363, 367,  34
 8, 364,  48,  41, 368, 363,  47,  42, 367
 9,   8,  31,  32,   7,  40, 364, 368,  33
10,  31,   5,   6,  32, 364,  48,  41, 368
11,  57, 369, 373,  56,   9,  49,  50,  12
12, 369,  65,  64, 373,  49,  10,  11,  50
13,  58, 370, 374,  55,  57, 369, 373,  56
14, 370,  66,  63, 374, 369,  65,  64, 373
15,  59, 371, 375,  54,  58, 370, 374,  55
16, 371,  67,  62, 375, 370,  66,  63, 374
17,  60, 372, 376,  53,  59, 371, 375,  54
18, 372,  68,  61, 376, 371,  67,  62, 375
19,  16,  51,  52,  15,  60, 372, 376,  53
20,  51,  13,  14,  52, 372,  68,  61, 376
** ... 1680 like lines cut
*Nset, nset=Set-1
    1,    4,    7,    8,    9,   12,   15,   16,   17,   18,   19,   20,   21,   22,   23,   24
   25,   26,   27,   28,   33,   34,   35,   36,   37,   38,   39,   40,   53,   54,   55,   56
   57,   58,   59,   60,   69,   70,   71,   72,   73,   74,   75,   76,   77,   78,   79,   80
   81,   82,   83,   84,   85,   86,   87,   88,   89,   90,   91,   92,   93,   94,   95,   96
   97,   98,   99,  100,  101,  102,  103,  104,  105,  106,  107,  108,  109,  110,  111,  112
  113,  114,  115,  116,  117,  118,  119,  120,  121,  122,  123,  124,  125,  126,  127,  128
  129,  130,  131,  132,  133,  134,  135,  136,  137,  138,  139,  140,  141,  142,  143,  144
  145,  146,  147,  148,  149,  150,  151,  152,  153,  154,  155,  156,  157,  158,  159,  160
  161,  162,  163,  164,  165,  166,  167,  168,  169,  170,  171,  172,  173,  174,  175,  176
  177,  178,  179,  180,  181,  182,  183,  184,  185,  186,  187,  188,  189,  190,  191,  192
  193,  194,  195,  196,  197,  198,  199,  200,  201,  202,  203,  204,  205,  206,  207,  208
  209,  210,  211,  212,  213,  214,  215,  216,  217,  218,  219,  220,  221,  222,  223,  224
  225,  226,  227,  228,  229,  230,  231,  232,  233,  234,  235,  236,  237,  238,  239,  240
  241,  242,  243,  244,  245,  246,  247,  248,  249,  250,  251,  252,  253,  254,  255,  256
  257,  258,  259,  260,  261,  262,  263,  264,  265,  266,  267,  268,  269,  270,  271,  272
  273,  274,  275,  276,  277,  278,  279,  280,  281,  282,  283,  284,  285,  286,  287,  288
  289,  290,  291,  292,  293,  294,  295,  296,  297,  298,  299,  300,  301,  302,  303,  304
  305,  306,  307,  308,  309,  310,  311,  312,  313,  314,  315,  316,  317,  318,  319,  320
  321,  322,  323,  324,  325,  326,  327,  328,  329,  330,  331,  332,  333,  334,  335,  336
  337,  338,  339,  340,  341,  342,  343,  344,  345,  346,  347,  348,  349,  350,  351,  352
** ... 201 like lines cut
*Elset, elset=Set-1, generate
   21,  1700,     1
*Nset, nset=Set-2
   1,   2,   3,   4,   5,   6,   7,   8,   9,  10,  11,  12,  13,  14,  15,  16
  29,  30,  31,  32,  33,  34,  35,  36,  37,  38,  39,  40,  41,  42,  43,  44
  45,  46,  47,  48,  49,  50,  51,  52,  53,  54,  55,  56,  57,  58,  59,  60
  61,  62,  63,  64,  65,  66,  67,  68, 361, 362, 363, 364, 365, 366, 367, 368
 369, 370, 371, 372, 373, 374, 375, 376
*Elset, elset=Set-2, generate
  1,  20,   1
** Section: Hinge
*Solid Section, elset=Set-2, material=Alu
,
** Section: Panel
*Solid Section, elset=Set-1, material=Acrylic
,
*End Instance
**  
*Nset, nset=Set-1, instance=Part-1-1
  2,  3,  5,  6, 10, 11, 13, 14, 41, 42, 43, 44, 45, 46, 47, 48
 61, 62, 63, 64, 65, 66, 67, 68
*Elset, elset=Set-1, instance=Part-1-1, generate
  2,  20,   2
*Nset, nset=Set-2, instance=Part-1-1
 17, 22
*End Assembly
** 
** MATERIALS
** 
*Material, name=Acrylic
*Density
1190.,
*Elastic
 3.3e+09, 0.35
*Material, name=Alu
*Density
2699.,
*Elastic
 7.02e+10, 0.345
*Step, name=Step-2, nlgeom=NO
**
** modified Inputfile -> Export MASS and STIFFNESS matrices
**
** for export a consistent mass matrix MASS=CONSISTENT for lumped only MASS
**
*MATRIX GENERATE, STIFFNESS, MASS
**
*MATRIX OUTPUT, STIFFNESS, MASS, FORMAT=COORDINATE
**
*End Step